*Heading
** Job name: Job-10 Model name: Model-1
** Generated by: Abaqus/CAE 2024
*Preprint, echo=NO, model=NO, history=NO, contact=NO
**
** PARTS
**
*Part, name=Part-1
*Node
      1,           1.,           0.
      2,           1.,           2.
      3,           0.,           2.
      4,           0.,           0.
      5,           2.,           0.
      6,           2.,           2.
      7,           1.,  0.200000003
      8,           1.,  0.400000006
      9,           1.,  0.600000024
     10,           1.,  0.800000012
     11,           1.,           1.
     12,           1.,   1.20000005
     13,           1.,   1.39999998
     14,           1.,   1.60000002
     15,           1.,   1.79999995
     16,  0.800000012,           2.
     17,  0.600000024,           2.
     18,  0.400000006,           2.
     19,  0.200000003,           2.
     20,           0.,   1.79999995
** ... 321 like lines cut
*Element, type=CPS8R
 1,   1,   7,  50,  32, 122, 123, 124, 125
 2,   7,   8,  51,  50, 126, 127, 128, 123
 3,   8,   9,  52,  51, 129, 130, 131, 127
 4,   9,  10,  53,  52, 132, 133, 134, 130
 5,  10,  11,  54,  53, 135, 136, 137, 133
 6,  11,  12,  55,  54, 138, 139, 140, 136
 7,  12,  13,  56,  55, 141, 142, 143, 139
 8,  13,  14,  57,  56, 144, 145, 146, 142
 9,  14,  15,  58,  57, 147, 148, 149, 145
10,  15,   2,  16,  58, 150, 151, 152, 148
11,  32,  50,  59,  31, 124, 153, 154, 155
12,  50,  51,  60,  59, 128, 156, 157, 153
13,  51,  52,  61,  60, 131, 158, 159, 156
14,  52,  53,  62,  61, 134, 160, 161, 158
15,  53,  54,  63,  62, 137, 162, 163, 160
16,  54,  55,  64,  63, 140, 164, 165, 162
17,  55,  56,  65,  64, 143, 166, 167, 164
18,  56,  57,  66,  65, 146, 168, 169, 166
19,  57,  58,  67,  66, 149, 170, 171, 168
20,  58,  16,  17,  67, 152, 172, 173, 170
** ... 80 like lines cut
*Nset, nset=_PickedSet2, internal, generate
   1,  341,    1
*Elset, elset=_PickedSet2, internal, generate
   1,  100,    1
** Section: Section-1
*Solid Section, elset=_PickedSet2, material=Material-1
0.01,
*End Part
**  
**
** ASSEMBLY
**
*Assembly, name=Assembly
**  
*Instance, name=Part-1-1, part=Part-1
*End Instance
**  
*Node
      1,          1.5,           2.,           0.
*Nset, nset=_PickedSet7, internal
 1,
*Nset, nset=_PickedSet10, internal, instance=Part-1-1
   1,   2,   7,   8,   9,  10,  11,  12,  13,  14,  15, 122, 126, 129, 132, 135
 138, 141, 144, 147, 150
*Elset, elset=_PickedSet10, internal, instance=Part-1-1
  1,  2,  3,  4,  5,  6,  7,  8,  9, 10, 51, 52, 53, 54, 55, 56
 57, 58, 59, 60
*Nset, nset=_PickedSet11, internal, instance=Part-1-1
 2,
*Nset, nset=_PickedSet12, internal, instance=Part-1-1
   1,   4,   5,  29,  30,  31,  32,  33,  34,  35,  36, 125, 155, 176, 197, 218
 256, 277, 298, 319, 340
*Elset, elset=_PickedSet12, internal, instance=Part-1-1
   1,  11,  21,  31,  41,  60,  70,  80,  90, 100
*Elset, elset=__PickedSurf5_S2, internal, instance=Part-1-1, generate
 10,  50,  10
*Elset, elset=__PickedSurf5_S4, internal, instance=Part-1-1, generate
 51,  91,  10
*Surface, type=ELEMENT, name=_PickedSurf5, internal
__PickedSurf5_S2, S2
__PickedSurf5_S4, S4
*Elset, elset=__PickedSurf8_S2, internal, instance=Part-1-1, generate
 10,  50,  10
*Elset, elset=__PickedSurf8_S4, internal, instance=Part-1-1, generate
 51,  91,  10
*Surface, type=ELEMENT, name=_PickedSurf8, internal
__PickedSurf8_S2, S2
__PickedSurf8_S4, S4
*Surface, type=NODE, name=_PickedSet7_CNS_, internal
_PickedSet7, 1.
** Constraint: Constraint-1
*Tie, name=Constraint-1, adjust=yes
_PickedSurf8, _PickedSet7_CNS_
*End Assembly
** 
** MATERIALS
** 
*Material, name=Material-1
*Elastic
 2e+08, 0.3
** 
** BOUNDARY CONDITIONS
** 
** Name: BC-2 Type: 对称/反对称/完全固定
*Boundary
_PickedSet10, XSYMM
** Name: BC-3 Type: 对称/反对称/完全固定
*Boundary
_PickedSet12, ENCASTRE
** ----------------------------------------------------------------
** 
** STEP: Step-1
** 
*Step, name=Step-1, nlgeom=NO
*Static
0.1, 1., 1e-05, 1.
** 
** LOADS
** 
** Name: Load-1   Type: Pressure
*Dsload
_PickedSurf5, P, 1000.
** Name: Load-2   Type: Concentrated force
*Cload
_PickedSet11, 2, -2000.
** 
** OUTPUT REQUESTS
** 
*Restart, write, frequency=0
** 
** FIELD OUTPUT: F-Output-1
** 
*Output, field, variable=PRESELECT
** 
** HISTORY OUTPUT: H-Output-1
** 
*Output, history, variable=PRESELECT
*End Step
